%nprocshared=2
%mem=1GB
%chk=Lig.chk
# opt=tight hf/6-31g(d) nosymm scf=qc pop=mk iop(6/33=2,6/42=6,6/50=1)

Lig

0 1
 C                  0.09543850    4.17975179   -3.80964600
 C                  0.80175777    5.38903340   -3.80884681
 C                  0.51304983    6.37432406   -2.85249130
 C                 -0.45856117    6.13391634   -1.87580461
 C                 -1.18031438    4.93159413   -1.88905531
 C                 -0.90248285    3.95453152   -2.85472308
 H                  1.56233451    5.56314689   -4.54229097
 C                  1.19956438    7.59276989   -2.90325955
 H                 -1.94182292    4.75784609   -1.15991385
 H                 -1.45081509    3.03717093   -2.86078559
 C                 -0.30345881    8.46335809   -1.24485519
 H                 -1.73198058    7.12735889   -0.66279753
 Cl                 0.46333814    2.94533594   -5.00948909
 N                 -0.74589355    7.12382213   -0.83061474
 O                  0.90932293    8.65634024   -1.98723376
 O                 -0.99787825    9.46470538   -0.92486787
 C                  2.46836230    7.66604935   -3.77522994
 C                  2.06538526    7.12862117   -1.71684839
 C                  2.73839284    6.76831182   -0.79496623
 C                  3.60919766    6.31065294    0.39227777
 C                  2.95652452    5.50506598    1.52982428
 C                  3.98331757    4.83175242    0.58972154
 H                  4.30131921    7.08604394    0.65490131
 H                  1.93420679    5.20229877    1.46988859
 H                  3.23306015    5.67204191    2.55152136
 H                  4.96924771    4.59499298    0.93250673
 H                  3.67048802    4.12555972   -0.14844314
 F                  2.17575489    7.26575804   -5.03005425
 F                  3.42083779    6.86041395   -3.25669940
 F                  2.92230775    8.93762961   -3.80142482

Lig_ini.gesp

Lig.gesp


